/*--------------------------------*- C++ -*----------------------------------*\
  =========                 |
  \\      /  F ield         | OpenFOAM: The Open Source CFD Toolbox
   \\    /   O peration     | Website:  https://openfoam.org
    \\  /    A nd           | Version:  6
     \\/     M anipulation  |
\*---------------------------------------------------------------------------*/
FoamFile
{
    version     2.0;
    format      ascii;
    class       volScalarField;
    location    "0";
    object      k;
}
// * * * * * * * * * * * * * * * * * * * * * * * * * * * * * * * * * * * * * //

dimensions      [0 2 -2 0 0 0 0];

internalField   uniform 0.01;

boundaryField
{
    inlet_1
    {
        type            fixedValue;
        value           $internalField;
    }

    inlet_2
    {
        type            fixedValue;
        value           $internalField;
    }
 
    outlet
    {
        type            zeroGradient;
    }
    pipe
    {
        type            kqRWallFunction;
        value           $internalField;
    }
}


// ************************************************************************* //
